# generated using pymatgen
data_MnIn2O4
_symmetry_space_group_name_H-M   'P 1'
_cell_length_a   6.48924799
_cell_length_b   6.48924798
_cell_length_c   6.48924760
_cell_angle_alpha   60.00000475
_cell_angle_beta   60.00000340
_cell_angle_gamma   60.00000530
_symmetry_Int_Tables_number   1
_chemical_formula_structural   MnIn2O4
_chemical_formula_sum   'Mn2 In4 O8'
_cell_volume   193.22714354
_cell_formula_units_Z   2
loop_
 _symmetry_equiv_pos_site_id
 _symmetry_equiv_pos_as_xyz
  1  'x, y, z'
loop_
 _atom_site_type_symbol
 _atom_site_label
 _atom_site_symmetry_multiplicity
 _atom_site_fract_x
 _atom_site_fract_y
 _atom_site_fract_z
 _atom_site_occupancy
  In  In0  1  0.125000  0.625000  0.625000  1
  In  In1  1  0.625000  0.125000  0.625000  1
  In  In2  1  0.625000  0.625000  0.125000  1
  In  In3  1  0.625000  0.625000  0.625000  1
  Mn  Mn4  1  0.000000  0.000000  0.000000  1
  Mn  Mn5  1  0.250000  0.250000  0.250000  1
  O  O6  1  0.848712  0.383763  0.383763  1
  O  O7  1  0.866237  0.866237  0.866237  1
  O  O8  1  0.383763  0.383763  0.848712  1
  O  O9  1  0.383763  0.848712  0.383763  1
  O  O10  1  0.866237  0.401288  0.866237  1
  O  O11  1  0.866237  0.866237  0.401288  1
  O  O12  1  0.383763  0.383763  0.383763  1
  O  O13  1  0.401288  0.866237  0.866237  1
